Git is a version control system.
Git is free software.
Change the config to true again.
test the 'git status' and 'git diff'.
new line.
new second line.
new third line.
new fourth line.
test push
new push
branch test
dev branch test~
test --no--ff
